clock {
	timezone PST8;
	starttime '2013-08-28 00:00:00';
	stoptime '2013-08-29 00:00:00';
}

#include "../include/schedules/appliance_schedules.glm"
#include "../include/schedules/water_and_setpoint_schedule_v5.glm"
#include "../include/schedules/commercial_schedules.glm"
#define stylesheet=http://gridlab-d.svn.sourceforge.net/viewvc/gridlab-d/trunk/core/gridlabd-2_0

#set minimum_timestep=3600.000000
#set profiler=1
#set relax_naming_rules=1
#set randomseed=10
#set suppress_repeat_messages=True
module market {
}

module tape {
}

module climate {
}

module residential {
	implicit_enduses NONE;
}

module powerflow {
	solver_method FBS;
	default_maximum_voltage_error 1e-4;
	line_limits TRUE;
}

object climate {
	name ClimateWeather;
	tmyfile ../include/weather/AZ-Phoenix.tmy3;
	interpolate QUADRATIC;
};

object substation {
	name network_node;
	bustype SWING;
	positive_sequence_voltage 138000.0;
	base_power 100;
	power_convergence_value 100;
	nominal_voltage 138000.0;
	phases ABCN;
};

object transformer_configuration {
	name trans_config_to_feeder;
	connect_type WYE_WYE;
	install_type PADMOUNT;
	primary_voltage 138000.0;
	secondary_voltage 2401.7771;
	power_rating 8.6 MVA;
	impedance 0.00033+0.0022j;
};

object transformer {
	name substation_transformer;
	from network_node;
	to n150;
	phases ABCN;
	configuration trans_config_to_feeder;
	groupid Distribution_Trans;
};

object overhead_line_conductor {
	name olc10001;
	geometric_mean_radius 0.0244;
	resistance 0.30600;
};

object overhead_line_conductor {
	name olc10009;
	geometric_mean_radius 0.004460;
	resistance 1.12000;
};

object overhead_line_conductor {
	name olc10002;
	geometric_mean_radius 0.008140;
	resistance 0.59200;
};

object underground_line_conductor {
	name ulc10003;
	outer_diameter 1.060000;
	conductor_gmr 0.011100;
	conductor_diameter 0.368000;
	conductor_resistance 0.970000;
	neutral_gmr 0.011100;
	neutral_resistance 0.970000;
	neutral_diameter 0.0640837;
	neutral_strands 6.000000;
	shield_gmr 0.000000;
	shield_resistance 0.000000;
};

object triplex_line_conductor {
	name tlc1000;
	resistance 0.48;
	geometric_mean_radius 0.0158;
	rating.summer.continuous 1000.0;
	rating.summer.emergency 1000.0;
	rating.winter.continuous 1000.0;
	rating.winter.emergency 1000.0;
};

object line_spacing {
	name ls5001;
	distance_AB 2.5;
	distance_AC 7.0;
	distance_BC 4.5;
	distance_AN 5.656854;
	distance_BN 4.272002;
	distance_CN 5.0;
};

object line_spacing {
	name ls5002;
	distance_AB 4.5;
	distance_AC 2.5;
	distance_BC 7.0;
	distance_AN 5.0;
	distance_BN 4.272002;
	distance_CN 5.656854;
};

object line_spacing {
	name ls5003;
	distance_AB 7.0;
	distance_AC 4.5;
	distance_BC 2.5;
	distance_AN 5.0;
	distance_BN 5.656854;
	distance_CN 4.272002;
};

object line_spacing {
	name ls5004;
	distance_AB 4.5;
	distance_AC 7.0;
	distance_BC 2.5;
	distance_AN 5.0;
	distance_BN 4.272002;
	distance_CN 5.656854;
};

object line_spacing {
	name ls5005;
	distance_AB 2.5;
	distance_AC 4.5;
	distance_BC 7.0;
	distance_BN 5.656854;
	distance_AN 4.272002;
	distance_CN 5.0;
};

object line_spacing {
	name ls5006;
	distance_AB 7.0;
	distance_AC 2.5;
	distance_BC 4.5;
	distance_AN 5.656854;
	distance_CN 4.272002;
	distance_BN 5.0;
};

object line_spacing {
	name ls5007;
	distance_AB 0.0;
	distance_AC 7.0;
	distance_BC 0.0;
	distance_AN 5.656854;
	distance_BN 0.0;
	distance_CN 5.0;
};

object line_spacing {
	name ls5008;
	distance_AB 7.0;
	distance_AC 0.0;
	distance_BC 0.0;
	distance_AN 5.656854;
	distance_BN 5.0;
	distance_CN 0.0;
};

object line_spacing {
	name ls5009;
	distance_AB 0.0;
	distance_AC 0.0;
	distance_BC 0.0;
	distance_AN 5.0;
	distance_BN 0.0;
	distance_CN 0.0;
};

object line_spacing {
	name ls50010;
	distance_AB 0.0;
	distance_AC 0.0;
	distance_BC 0.0;
	distance_AN 0.0;
	distance_BN 5.0;
	distance_CN 0.0;
};

object line_spacing {
	name ls50011;
	distance_AB 0.0;
	distance_AC 0.0;
	distance_BC 0.0;
	distance_AN 0.0;
	distance_BN 0.0;
	distance_CN 5.0;
};

object line_spacing {
	name ls50012;
	distance_AB 0.5;
	distance_AC 1.0;
	distance_BC 0.5;
	distance_AN 0.0;
	distance_BN 0.0;
	distance_CN 0.0;
};

object triplex_line_configuration {
	name lc1000;
	conductor_1 tlc1000;
	conductor_2 tlc1000;
	conductor_N tlc1000;
	insulation_thickness 0.08;
	diameter 0.522;
};

object line_configuration {
	name lc1001;
	conductor_A olc10001;
	conductor_B olc10001;
	conductor_C olc10001;
	conductor_N olc10002;
	spacing ls5001;
};

object line_configuration {
	name lc1002;
	conductor_A olc10001;
	conductor_B olc10001;
	conductor_C olc10001;
	conductor_N olc10002;
	spacing ls5002;
};

object line_configuration {
	name lc1003;
	conductor_A olc10001;
	conductor_B olc10001;
	conductor_C olc10001;
	conductor_N olc10002;
	spacing ls5003;
};

object line_configuration {
	name lc1004;
	conductor_A olc10001;
	conductor_B olc10001;
	conductor_C olc10001;
	conductor_N olc10002;
	spacing ls5004;
};

object line_configuration {
	name lc1005;
	conductor_A olc10001;
	conductor_B olc10001;
	conductor_C olc10001;
	conductor_N olc10002;
	spacing ls5005;
};

object line_configuration {
	name lc1006;
	conductor_A olc10001;
	conductor_B olc10001;
	conductor_C olc10001;
	conductor_N olc10002;
	spacing ls5006;
};

object line_configuration {
	name lc1007;
	conductor_A olc10001;
	conductor_C olc10001;
	conductor_N olc10002;
	spacing ls5007;
};

object line_configuration {
	name lc1008;
	conductor_A olc10001;
	conductor_B olc10001;
	conductor_N olc10002;
	spacing ls5008;
};

object line_configuration {
	name lc1009;
	conductor_A olc10009;
	conductor_N olc10009;
	spacing ls5009;
};

object line_configuration {
	name lc10010;
	conductor_B olc10009;
	conductor_N olc10009;
	spacing ls50010;
};

object line_configuration {
	name lc10011;
	conductor_C olc10009;
	conductor_N olc10009;
	spacing ls50011;
};

object line_configuration {
	name lc10012;
	conductor_A ulc10003;
	conductor_B ulc10003;
	conductor_C ulc10003;
	spacing ls50012;
};

object overhead_line {
	phases "BN";
	name linobj12;
	from l1;
	to l2;
	length 175;
	configuration lc10010;
	groupid Distribution_Line;
};

object overhead_line {
	phases "CN";
	name linobj13;
	from l1;
	to n3;
	length 250;
	configuration lc10011;
	groupid Distribution_Line;
};

object overhead_line {
	phases "ABCN";
	name linobj17;
	from l1;
	to l7;
	length 300;
	configuration lc1001;
	groupid Distribution_Line;
};

object overhead_line {
	phases "CN";
	name linobj34;
	from n3;
	to l4;
	length 200;
	configuration lc10011;
	groupid Distribution_Line;
};

object overhead_line {
	phases "CN";
	name linobj35;
	from n3;
	to l5;
	length 325;
	configuration lc10011;
	groupid Distribution_Line;
};

object overhead_line {
	phases "CN";
	name linobj56;
	from l5;
	to l6;
	length 250;
	configuration lc10011;
	groupid Distribution_Line;
};

object overhead_line {
	phases "ABCN";
	name linobj78;
	from l7;
	to n8;
	length 200;
	configuration lc1001;
	groupid Distribution_Line;
};

object overhead_line {
	phases "BN";
	name linobj812;
	from n8;
	to l12;
	length 225;
	configuration lc10010;
	groupid Distribution_Line;
};

object overhead_line {
	phases "AN";
	name linobj89;
	from n8;
	to l9;
	length 225;
	configuration lc1009;
	groupid Distribution_Line;
};

object overhead_line {
	phases "ABCN";
	name linobj813;
	from n8;
	to n13;
	length 300;
	configuration lc1001;
	groupid Distribution_Line;
};

object overhead_line {
	phases "AN";
	name linobj140114;
	from n1401;
	to n14;
	length 425;
	configuration lc1009;
	groupid Distribution_Line;
};

object overhead_line {
	phases "CN";
	name linobj1334;
	from n13;
	to l34;
	length 150;
	configuration lc10011;
	groupid Distribution_Line;
};

object overhead_line {
	phases "ABCN";
	name linobj1318;
	from n13;
	to n18;
	length 825;
	configuration lc1002;
	groupid Distribution_Line;
};

object overhead_line {
	phases "AN";
	name linobj1411;
	from n14;
	to l11;
	length 250;
	configuration lc1009;
	groupid Distribution_Line;
};

object overhead_line {
	phases "AN";
	name linobj1410;
	from n14;
	to l10;
	length 250;
	configuration lc1009;
	groupid Distribution_Line;
};

object overhead_line {
	phases "CN";
	name linobj1516;
	from n15;
	to l16;
	length 375;
	configuration lc10011;
	groupid Distribution_Line;
};

object overhead_line {
	phases "CN";
	name linobj1517;
	from n15;
	to l17;
	length 350;
	configuration lc10011;
	groupid Distribution_Line;
};

object overhead_line {
	phases "AN";
	name linobj1819;
	from n18;
	to l19;
	length 250;
	configuration lc1009;
	groupid Distribution_Line;
};

object overhead_line {
	phases "ABCN";
	name linobj1821;
	from n18;
	to n21;
	length 300;
	configuration lc1002;
	groupid Distribution_Line;
};

object overhead_line {
	phases "AN";
	name linobj1920;
	from l19;
	to l20;
	length 325;
	configuration lc1009;
	groupid Distribution_Line;
};

object overhead_line {
	phases "BN";
	name linobj2122;
	from n21;
	to l22;
	length 525;
	configuration lc10010;
	groupid Distribution_Line;
};

object overhead_line {
	phases "ABCN";
	name linobj2123;
	from n21;
	to n23;
	length 250;
	configuration lc1002;
	groupid Distribution_Line;
};

object overhead_line {
	phases "CN";
	name linobj2324;
	from n23;
	to l24;
	length 550;
	configuration lc10011;
	groupid Distribution_Line;
};

object overhead_line {
	phases "ABCN";
	name linobj2325;
	from n23;
	to n25;
	length 275;
	configuration lc1002;
	groupid Distribution_Line;
};

object overhead_line {
	phases "ACN";
	name linobj260126;
	from n2601;
	to n26;
	length 350;
	configuration lc1007;
	groupid Distribution_Line;
};

object overhead_line {
	phases "ABCN";
	name linobj2528;
	from n25;
	to l28;
	length 200;
	configuration lc1002;
	groupid Distribution_Line;
};

object overhead_line {
	phases "ACN";
	name linobj2627;
	from n26;
	to n27;
	length 275;
	configuration lc1007;
	groupid Distribution_Line;
};

object overhead_line {
	phases "CN";
	name linobj2631;
	from n26;
	to l31;
	length 225;
	configuration lc10011;
	groupid Distribution_Line;
};

object overhead_line {
	phases "AN";
	name linobj2733;
	from n27;
	to l33;
	length 500;
	configuration lc1009;
	groupid Distribution_Line;
};

object overhead_line {
	phases "ABCN";
	name linobj2829;
	from l28;
	to l29;
	length 300;
	configuration lc1002;
	groupid Distribution_Line;
};

object overhead_line {
	phases "ABCN";
	name linobj2930;
	from l29;
	to l30;
	length 350;
	configuration lc1002;
	groupid Distribution_Line;
};

object overhead_line {
	phases "ABCN";
	name linobj30250;
	from l30;
	to n250;
	length 200;
	configuration lc1002;
	groupid Distribution_Line;
};

object overhead_line {
	phases "CN";
	name linobj3132;
	from l31;
	to l32;
	length 300;
	configuration lc10011;
	groupid Distribution_Line;
};

object overhead_line {
	phases "CN";
	name linobj3415;
	from l34;
	to n15;
	length 100;
	configuration lc10011;
	groupid Distribution_Line;
};

object overhead_line {
	phases "ABN";
	name linobj3536;
	from l35;
	to n36;
	length 650;
	configuration lc1008;
	groupid Distribution_Line;
};

object overhead_line {
	phases "ABCN";
	name linobj3540;
	from l35;
	to n40;
	length 250;
	configuration lc1001;
	groupid Distribution_Line;
};

object overhead_line {
	phases "AN";
	name linobj3637;
	from n36;
	to l37;
	length 300;
	configuration lc1009;
	groupid Distribution_Line;
};

object overhead_line {
	phases "BN";
	name linobj3638;
	from n36;
	to l38;
	length 250;
	configuration lc10010;
	groupid Distribution_Line;
};

object overhead_line {
	phases "BN";
	name linobj3839;
	from l38;
	to l39;
	length 325;
	configuration lc10010;
	groupid Distribution_Line;
};

object overhead_line {
	phases "CN";
	name linobj4041;
	from n40;
	to l41;
	length 325;
	configuration lc10011;
	groupid Distribution_Line;
};

object overhead_line {
	phases "ABCN";
	name linobj4042;
	from n40;
	to l42;
	length 250;
	configuration lc1001;
	groupid Distribution_Line;
};

object overhead_line {
	phases "BN";
	name linobj4243;
	from l42;
	to l43;
	length 500;
	configuration lc10010;
	groupid Distribution_Line;
};

object overhead_line {
	phases "ABCN";
	name linobj4244;
	from l42;
	to n44;
	length 200;
	configuration lc1001;
	groupid Distribution_Line;
};

object overhead_line {
	phases "AN";
	name linobj4445;
	from n44;
	to l45;
	length 200;
	configuration lc1009;
	groupid Distribution_Line;
};

object overhead_line {
	phases "ABCN";
	name linobj4447;
	from n44;
	to l47;
	length 250;
	configuration lc1001;
	groupid Distribution_Line;
};

object overhead_line {
	phases "AN";
	name linobj4546;
	from l45;
	to l46;
	length 300;
	configuration lc1009;
	groupid Distribution_Line;
};

object overhead_line {
	phases "ABCN";
	name linobj4748;
	from l47;
	to l48;
	length 150;
	configuration lc1004;
	groupid Distribution_Line;
};

object overhead_line {
	phases "ABCN";
	name linobj4749;
	from l47;
	to l49;
	length 250;
	configuration lc1004;
	groupid Distribution_Line;
};

object overhead_line {
	phases "ABCN";
	name linobj4950;
	from l49;
	to l50;
	length 250;
	configuration lc1004;
	groupid Distribution_Line;
};

object overhead_line {
	phases "ABCN";
	name linobj5051;
	from l50;
	to l51;
	length 250;
	configuration lc1004;
	groupid Distribution_Line;
};

object overhead_line {
	phases "ABCN";
	name linobj51151;
	from l51;
	to n151;
	length 700;
	configuration lc1004;
	groupid Distribution_Line;
};

object overhead_line {
	phases "ABCN";
	name linobj5253;
	from l52;
	to l53;
	length 200;
	configuration lc1001;
	groupid Distribution_Line;
};

object overhead_line {
	phases "ABCN";
	name linobj5354;
	from l53;
	to n54;
	length 125;
	configuration lc1001;
	groupid Distribution_Line;
};

object overhead_line {
	phases "ABCN";
	name linobj5455;
	from n54;
	to l55;
	length 275;
	configuration lc1001;
	groupid Distribution_Line;
};

object overhead_line {
	phases "ABCN";
	name linobj5457;
	from n54;
	to n57;
	length 350;
	configuration lc1003;
	groupid Distribution_Line;
};

object overhead_line {
	phases "ABCN";
	name linobj5556;
	from l55;
	to l56;
	length 275;
	configuration lc1001;
	groupid Distribution_Line;
};

object overhead_line {
	phases "BN";
	name linobj5758;
	from n57;
	to l58;
	length 250;
	configuration lc10010;
	groupid Distribution_Line;
};

object overhead_line {
	phases "ABCN";
	name linobj5760;
	from n57;
	to l60;
	length 750;
	configuration lc1003;
	groupid Distribution_Line;
};

object overhead_line {
	phases "BN";
	name linobj5859;
	from l58;
	to l59;
	length 250;
	configuration lc10010;
	groupid Distribution_Line;
};

object overhead_line {
	phases "ABCN";
	name linobj6061;
	from l60;
	to n61;
	length 550;
	configuration lc1005;
	groupid Distribution_Line;
};

object underground_line {
	phases "ABC";
	name linobj6062;
	from l60;
	to l62;
	length 250;
	configuration lc10012;
	groupid Distribution_Line;
};

object underground_line {
	phases "ABC";
	name linobj6263;
	from l62;
	to l63;
	length 175;
	configuration lc10012;
	groupid Distribution_Line;
};

object underground_line {
	phases "ABC";
	name linobj6364;
	from l63;
	to l64;
	length 350;
	configuration lc10012;
	groupid Distribution_Line;
};

object underground_line {
	phases "ABC";
	name linobj6465;
	from l64;
	to l65;
	length 425;
	configuration lc10012;
	groupid Distribution_Line;
};

object underground_line {
	phases "ABC";
	name linobj6566;
	from l65;
	to l66;
	length 325;
	configuration lc10012;
	groupid Distribution_Line;
};

object overhead_line {
	phases "AN";
	name linobj6768;
	from n67;
	to l68;
	length 200;
	configuration lc1009;
	groupid Distribution_Line;
};

object overhead_line {
	phases "ABCN";
	name linobj6772;
	from n67;
	to n72;
	length 275;
	configuration lc1003;
	groupid Distribution_Line;
};

object overhead_line {
	phases "ABCN";
	name linobj6797;
	from n67;
	to n97;
	length 250;
	configuration lc1003;
	groupid Distribution_Line;
};

object overhead_line {
	phases "AN";
	name linobj6869;
	from l68;
	to l69;
	length 275;
	configuration lc1009;
	groupid Distribution_Line;
};

object overhead_line {
	phases "AN";
	name linobj6970;
	from l69;
	to l70;
	length 325;
	configuration lc1009;
	groupid Distribution_Line;
};

object overhead_line {
	phases "AN";
	name linobj7071;
	from l70;
	to l71;
	length 275;
	configuration lc1009;
	groupid Distribution_Line;
};

object overhead_line {
	phases "CN";
	name linobj7273;
	from n72;
	to l73;
	length 275;
	configuration lc10011;
	groupid Distribution_Line;
};

object overhead_line {
	phases "ABCN";
	name linobj7276;
	from n72;
	to l76;
	length 200;
	configuration lc1003;
	groupid Distribution_Line;
};

object overhead_line {
	phases "CN";
	name linobj7374;
	from l73;
	to l74;
	length 350;
	configuration lc10011;
	groupid Distribution_Line;
};

object overhead_line {
	phases "CN";
	name linobj7475;
	from l74;
	to l75;
	length 400;
	configuration lc10011;
	groupid Distribution_Line;
};

object overhead_line {
	phases "ABCN";
	name linobj7677;
	from l76;
	to l77;
	length 400;
	configuration lc1006;
	groupid Distribution_Line;
};

object overhead_line {
	phases "ABCN";
	name linobj7686;
	from l76;
	to l86;
	length 700;
	configuration lc1003;
	groupid Distribution_Line;
};

object overhead_line {
	phases "ABCN";
	name linobj7778;
	from l77;
	to n78;
	length 100;
	configuration lc1006;
	groupid Distribution_Line;
};

object overhead_line {
	phases "ABCN";
	name linobj7879;
	from n78;
	to l79;
	length 225;
	configuration lc1006;
	groupid Distribution_Line;
};

object overhead_line {
	phases "ABCN";
	name linobj7880;
	from n78;
	to l80;
	length 475;
	configuration lc1006;
	groupid Distribution_Line;
};

object overhead_line {
	phases "ABCN";
	name linobj8081;
	from l80;
	to n81;
	length 475;
	configuration lc1006;
	groupid Distribution_Line;
};

object overhead_line {
	phases "ABCN";
	name linobj8182;
	from n81;
	to l82;
	length 250;
	configuration lc1006;
	groupid Distribution_Line;
};

object overhead_line {
	phases "CN";
	name linobj8184;
	from n81;
	to l84;
	length 675;
	configuration lc10011;
	groupid Distribution_Line;
};

object overhead_line {
	phases "ABCN";
	name linobj8283;
	from l82;
	to l83;
	length 250;
	configuration lc1006;
	groupid Distribution_Line;
};

object overhead_line {
	phases "CN";
	name linobj8485;
	from l84;
	to l85;
	length 475;
	configuration lc10011;
	groupid Distribution_Line;
};

object overhead_line {
	phases "ABCN";
	name linobj8687;
	from l86;
	to l87;
	length 450;
	configuration lc1006;
	groupid Distribution_Line;
};

object overhead_line {
	phases "AN";
	name linobj8788;
	from l87;
	to l88;
	length 175;
	configuration lc1009;
	groupid Distribution_Line;
};

object overhead_line {
	phases "ABCN";
	name linobj8789;
	from l87;
	to n89;
	length 275;
	configuration lc1006;
	groupid Distribution_Line;
};

object overhead_line {
	phases "BN";
	name linobj8990;
	from n89;
	to l90;
	length 225;
	configuration lc10010;
	groupid Distribution_Line;
};

object overhead_line {
	phases "ABCN";
	name linobj8991;
	from n89;
	to n91;
	length 225;
	configuration lc1006;
	groupid Distribution_Line;
};

object overhead_line {
	phases "CN";
	name linobj9192;
	from n91;
	to l92;
	length 300;
	configuration lc10011;
	groupid Distribution_Line;
};

object overhead_line {
	phases "ABCN";
	name linobj9193;
	from n91;
	to n93;
	length 225;
	configuration lc1006;
	groupid Distribution_Line;
};

object overhead_line {
	phases "AN";
	name linobj9394;
	from n93;
	to l94;
	length 275;
	configuration lc1009;
	groupid Distribution_Line;
};

object overhead_line {
	phases "ABCN";
	name linobj9395;
	from n93;
	to l95;
	length 300;
	configuration lc1006;
	groupid Distribution_Line;
};

object overhead_line {
	phases "BN";
	name linobj9596;
	from l95;
	to l96;
	length 200;
	configuration lc10010;
	groupid Distribution_Line;
};

object overhead_line {
	phases "ABCN";
	name linobj9798;
	from n97;
	to l98;
	length 275;
	configuration lc1003;
	groupid Distribution_Line;
};

object overhead_line {
	phases "ABCN";
	name linobj9899;
	from l98;
	to l99;
	length 550;
	configuration lc1003;
	groupid Distribution_Line;
};

object overhead_line {
	phases "ABCN";
	name linobj99100;
	from l99;
	to l100;
	length 300;
	configuration lc1003;
	groupid Distribution_Line;
};

object overhead_line {
	phases "ABCN";
	name linobj100450;
	from l100;
	to n450;
	length 800;
	configuration lc1003;
	groupid Distribution_Line;
};

object overhead_line {
	phases "CN";
	name linobj101102;
	from n101;
	to l102;
	length 225;
	configuration lc10011;
	groupid Distribution_Line;
};

object overhead_line {
	phases "ABCN";
	name linobj101105;
	from n101;
	to n105;
	length 275;
	configuration lc1003;
	groupid Distribution_Line;
};

object overhead_line {
	phases "CN";
	name linobj102103;
	from l102;
	to l103;
	length 325;
	configuration lc10011;
	groupid Distribution_Line;
};

object overhead_line {
	phases "CN";
	name linobj103104;
	from l103;
	to l104;
	length 700;
	configuration lc10011;
	groupid Distribution_Line;
};

object overhead_line {
	phases "BN";
	name linobj105106;
	from n105;
	to l106;
	length 225;
	configuration lc10010;
	groupid Distribution_Line;
};

object overhead_line {
	phases "ABCN";
	name linobj105108;
	from n105;
	to n108;
	length 325;
	configuration lc1003;
	groupid Distribution_Line;
};

object overhead_line {
	phases "BN";
	name linobj106107;
	from l106;
	to l107;
	length 575;
	configuration lc10010;
	groupid Distribution_Line;
};

object overhead_line {
	phases "AN";
	name linobj108109;
	from n108;
	to l109;
	length 450;
	configuration lc1009;
	groupid Distribution_Line;
};

object overhead_line {
	phases "ABCN";
	name linobj108300;
	from n108;
	to n300;
	length 1000;
	configuration lc1003;
	groupid Distribution_Line;
};

object overhead_line {
	phases "AN";
	name linobj109110;
	from l109;
	to n110;
	length 300;
	configuration lc1009;
	groupid Distribution_Line;
};

object overhead_line {
	phases "AN";
	name linobj110111;
	from n110;
	to l111;
	length 575;
	configuration lc1009;
	groupid Distribution_Line;
};

object overhead_line {
	phases "AN";
	name linobj110112;
	from n110;
	to l112;
	length 125;
	configuration lc1009;
	groupid Distribution_Line;
};

object overhead_line {
	phases "AN";
	name linobj112113;
	from l112;
	to l113;
	length 525;
	configuration lc1009;
	groupid Distribution_Line;
};

object overhead_line {
	phases "AN";
	name linobj113114;
	from l113;
	to l114;
	length 325;
	configuration lc1009;
	groupid Distribution_Line;
};

object overhead_line {
	phases "ABCN";
	name linobj13535;
	from n135;
	to l35;
	length 375;
	configuration lc1004;
	groupid Distribution_Line;
};

object overhead_line {
	phases "ABCN";
	name linobj1491;
	from n149;
	to l1;
	length 400;
	configuration lc1001;
	groupid Distribution_Line;
};

object overhead_line {
	phases "ABCN";
	name linobj15252;
	from n152;
	to l52;
	length 400;
	configuration lc1001;
	groupid Distribution_Line;
};

object overhead_line {
	phases "ABCN";
	name linobj670167;
	from n6701;
	to n67;
	length 350;
	configuration lc1006;
	groupid Distribution_Line;
};

object overhead_line {
	phases "ABCN";
	name linobj197101;
	from n197;
	to n101;
	length 250;
	configuration lc1003;
	groupid Distribution_Line;
};

object node {
	name n3;
	phases "CN";
	voltage_A 2401.7771;
	voltage_B -1200.8886-2080.000j;
	voltage_C -1200.8886+2080.000j;
	nominal_voltage 2401.7771;
};

object node {
	name n8;
	phases "ABCN";
	voltage_A 2401.7771;
	voltage_B -1200.8886-2080.000j;
	voltage_C -1200.8886+2080.000j;
	nominal_voltage 2401.7771;
};

object node {
	name n13;
	phases "ABCN";
	voltage_A 2401.7771;
	voltage_B -1200.8886-2080.000j;
	voltage_C -1200.8886+2080.000j;
	nominal_voltage 2401.7771;
};

object node {
	name n14;
	phases "AN";
	voltage_A 2401.7771;
	voltage_B -1200.8886-2080.000j;
	voltage_C -1200.8886+2080.000j;
	nominal_voltage 2401.7771;
};

object node {
	name n1401;
	phases "AN";
	voltage_A 2401.7771;
	voltage_B -1200.8886-2080.000j;
	voltage_C -1200.8886+2080.000j;
	nominal_voltage 2401.7771;
};

object node {
	name n15;
	phases "CN";
	voltage_A 2401.7771;
	voltage_B -1200.8886-2080.000j;
	voltage_C -1200.8886+2080.000j;
	nominal_voltage 2401.7771;
};

object node {
	name n18;
	phases "ABCN";
	voltage_A 2401.7771;
	voltage_B -1200.8886-2080.000j;
	voltage_C -1200.8886+2080.000j;
	nominal_voltage 2401.7771;
};

object node {
	name n21;
	phases "ABCN";
	voltage_A 2401.7771;
	voltage_B -1200.8886-2080.000j;
	voltage_C -1200.8886+2080.000j;
	nominal_voltage 2401.7771;
};

object node {
	name n23;
	phases "ABCN";
	voltage_A 2401.7771;
	voltage_B -1200.8886-2080.000j;
	voltage_C -1200.8886+2080.000j;
	nominal_voltage 2401.7771;
};

object node {
	name n25;
	phases "ABCN";
	voltage_A 2401.7771;
	voltage_B -1200.8886-2080.000j;
	voltage_C -1200.8886+2080.000j;
	nominal_voltage 2401.7771;
};

object node {
	name n26;
	phases "ACN";
	voltage_A 2401.7771;
	voltage_B -1200.8886-2080.000j;
	voltage_C -1200.8886+2080.000j;
	nominal_voltage 2401.7771;
};

object node {
	name n2601;
	phases "ACN";
	voltage_A 2401.7771;
	voltage_B -1200.8886-2080.000j;
	voltage_C -1200.8886+2080.000j;
	nominal_voltage 2401.7771;
};

object node {
	name n27;
	phases "ACN";
	voltage_A 2401.7771;
	voltage_B -1200.8886-2080.000j;
	voltage_C -1200.8886+2080.000j;
	nominal_voltage 2401.7771;
};

object node {
	name n36;
	phases "ABN";
	voltage_A 2401.7771;
	voltage_B -1200.8886-2080.000j;
	voltage_C -1200.8886+2080.000j;
	nominal_voltage 2401.7771;
};

object node {
	name n40;
	phases "ABCN";
	voltage_A 2401.7771;
	voltage_B -1200.8886-2080.000j;
	voltage_C -1200.8886+2080.000j;
	nominal_voltage 2401.7771;
};

object node {
	name n44;
	phases "ABCN";
	voltage_A 2401.7771;
	voltage_B -1200.8886-2080.000j;
	voltage_C -1200.8886+2080.000j;
	nominal_voltage 2401.7771;
};

object node {
	name n54;
	phases "ABCN";
	voltage_A 2401.7771;
	voltage_B -1200.8886-2080.000j;
	voltage_C -1200.8886+2080.000j;
	nominal_voltage 2401.7771;
};

object node {
	name n57;
	phases "ABCN";
	voltage_A 2401.7771;
	voltage_B -1200.8886-2080.000j;
	voltage_C -1200.8886+2080.000j;
	nominal_voltage 2401.7771;
};

object node {
	name n61;
	phases "ABCN";
	voltage_A 2401.7771;
	voltage_B -1200.8886-2080.000j;
	voltage_C -1200.8886+2080.000j;
	nominal_voltage 2401.7771;
};

object node {
	name n67;
	phases "ABCN";
	voltage_A 2401.7771;
	voltage_B -1200.8886-2080.000j;
	voltage_C -1200.8886+2080.000j;
	nominal_voltage 2401.7771;
};

object node {
	name n6701;
	phases "ABCN";
	voltage_A 2401.7771;
	voltage_B -1200.8886-2080.000j;
	voltage_C -1200.8886+2080.000j;
	nominal_voltage 2401.7771;
};

object node {
	name n72;
	phases "ABCN";
	voltage_A 2401.7771;
	voltage_B -1200.8886-2080.000j;
	voltage_C -1200.8886+2080.000j;
	nominal_voltage 2401.7771;
};

object node {
	name n78;
	phases "ABCN";
	voltage_A 2401.7771;
	voltage_B -1200.8886-2080.000j;
	voltage_C -1200.8886+2080.000j;
	nominal_voltage 2401.7771;
};

object node {
	name n81;
	phases "ABCN";
	voltage_A 2401.7771;
	voltage_B -1200.8886-2080.000j;
	voltage_C -1200.8886+2080.000j;
	nominal_voltage 2401.7771;
};

object node {
	name n89;
	phases "ABCN";
	voltage_A 2401.7771;
	voltage_B -1200.8886-2080.000j;
	voltage_C -1200.8886+2080.000j;
	nominal_voltage 2401.7771;
};

object node {
	name n91;
	phases "ABCN";
	voltage_A 2401.7771;
	voltage_B -1200.8886-2080.000j;
	voltage_C -1200.8886+2080.000j;
	nominal_voltage 2401.7771;
};

object node {
	name n93;
	phases "ABCN";
	voltage_A 2401.7771;
	voltage_B -1200.8886-2080.000j;
	voltage_C -1200.8886+2080.000j;
	nominal_voltage 2401.7771;
};

object node {
	name n97;
	phases "ABCN";
	voltage_A 2401.7771;
	voltage_B -1200.8886-2080.000j;
	voltage_C -1200.8886+2080.000j;
	nominal_voltage 2401.7771;
};

object node {
	name n101;
	phases "ABCN";
	voltage_A 2401.7771;
	voltage_B -1200.8886-2080.000j;
	voltage_C -1200.8886+2080.000j;
	nominal_voltage 2401.7771;
};

object node {
	name n105;
	phases "ABCN";
	voltage_A 2401.7771;
	voltage_B -1200.8886-2080.000j;
	voltage_C -1200.8886+2080.000j;
	nominal_voltage 2401.7771;
};

object node {
	name n108;
	phases "ABCN";
	voltage_A 2401.7771;
	voltage_B -1200.8886-2080.000j;
	voltage_C -1200.8886+2080.000j;
	nominal_voltage 2401.7771;
};

object node {
	name n110;
	phases "AN";
	voltage_A 2401.7771;
	voltage_B -1200.8886-2080.000j;
	voltage_C -1200.8886+2080.000j;
	nominal_voltage 2401.7771;
};
